<?xml version="1.0" encoding="UTF-8"?>
<!DOCTYPE network SYSTEM "http://www.matsim.org/files/dtd/network_v2.dtd">
<network>

<!-- ====================================================================== -->

	<nodes>
		<node id="DummyNode1" x="719991.463908" y="6174840.523082" >
		</node>
		<node id="DummyNode2" x="723728.644952" y="6180425.027057" >
		</node>
	</nodes>

<!-- ====================================================================== -->

	<links capperiod="01:00:00" effectivecellsize="7.5" effectivelanewidth="3.75">
		<link id="DummyLink" from="DummyNode1" to="DummyNode2" length="6719.613590261429" freespeed="1.0" capacity="1.0" permlanes="1.0" oneway="1" modes="car" >
		</link>
	</links>

<!-- ====================================================================== -->

</network>
